* NGSPICE file created from iiitb_freqdiv.ext - technology: sky130A

* Black-box entry subcircuit for sky130_fd_sc_hd__o31ai_1 abstract view
.subckt sky130_fd_sc_hd__o31ai_1 A1 A2 A3 B1 VGND VNB VPB VPWR Y
.ends

* Black-box entry subcircuit for sky130_fd_sc_hd__dfxtp_1 abstract view
.subckt sky130_fd_sc_hd__dfxtp_1 CLK D VGND VNB VPB VPWR Q
.ends

* Black-box entry subcircuit for sky130_fd_sc_hd__fill_2 abstract view
.subckt sky130_fd_sc_hd__fill_2 VGND VNB VPB VPWR
.ends

* Black-box entry subcircuit for sky130_ef_sc_hd__decap_12 abstract view
.subckt sky130_ef_sc_hd__decap_12 VGND VNB VPB VPWR
.ends

* Black-box entry subcircuit for sky130_fd_sc_hd__fill_1 abstract view
.subckt sky130_fd_sc_hd__fill_1 VGND VNB VPB VPWR
.ends

* Black-box entry subcircuit for sky130_fd_sc_hd__decap_4 abstract view
.subckt sky130_fd_sc_hd__decap_4 VGND VNB VPB VPWR
.ends

* Black-box entry subcircuit for sky130_fd_sc_hd__a21oi_1 abstract view
.subckt sky130_fd_sc_hd__a21oi_1 A1 A2 B1 VGND VNB VPB VPWR Y
.ends

* Black-box entry subcircuit for sky130_fd_sc_hd__decap_6 abstract view
.subckt sky130_fd_sc_hd__decap_6 VGND VNB VPB VPWR
.ends

* Black-box entry subcircuit for sky130_fd_sc_hd__clkbuf_16 abstract view
.subckt sky130_fd_sc_hd__clkbuf_16 A VGND VNB VPB VPWR X
.ends

* Black-box entry subcircuit for sky130_fd_sc_hd__and3_1 abstract view
.subckt sky130_fd_sc_hd__and3_1 A B C VGND VNB VPB VPWR X
.ends

* Black-box entry subcircuit for sky130_fd_sc_hd__clkbuf_1 abstract view
.subckt sky130_fd_sc_hd__clkbuf_1 A VGND VNB VPB VPWR X
.ends

* Black-box entry subcircuit for sky130_fd_sc_hd__and4_1 abstract view
.subckt sky130_fd_sc_hd__and4_1 A B C D VGND VNB VPB VPWR X
.ends

* Black-box entry subcircuit for sky130_fd_sc_hd__decap_8 abstract view
.subckt sky130_fd_sc_hd__decap_8 VGND VNB VPB VPWR
.ends

* Black-box entry subcircuit for sky130_fd_sc_hd__or2_1 abstract view
.subckt sky130_fd_sc_hd__or2_1 A B VGND VNB VPB VPWR X
.ends

* Black-box entry subcircuit for sky130_fd_sc_hd__decap_3 abstract view
.subckt sky130_fd_sc_hd__decap_3 VGND VNB VPB VPWR
.ends

* Black-box entry subcircuit for sky130_fd_sc_hd__a211oi_1 abstract view
.subckt sky130_fd_sc_hd__a211oi_1 A1 A2 B1 C1 VGND VNB VPB VPWR Y
.ends

* Black-box entry subcircuit for sky130_fd_sc_hd__inv_2 abstract view
.subckt sky130_fd_sc_hd__inv_2 A VGND VNB VPB VPWR Y
.ends

* Black-box entry subcircuit for sky130_fd_sc_hd__a21o_1 abstract view
.subckt sky130_fd_sc_hd__a21o_1 A1 A2 B1 VGND VNB VPB VPWR X
.ends

* Black-box entry subcircuit for sky130_fd_sc_hd__o22a_1 abstract view
.subckt sky130_fd_sc_hd__o22a_1 A1 A2 B1 B2 VGND VNB VPB VPWR X
.ends

* Black-box entry subcircuit for sky130_fd_sc_hd__o211a_1 abstract view
.subckt sky130_fd_sc_hd__o211a_1 A1 A2 B1 C1 VGND VNB VPB VPWR X
.ends

* Black-box entry subcircuit for sky130_fd_sc_hd__o221a_1 abstract view
.subckt sky130_fd_sc_hd__o221a_1 A1 A2 B1 B2 C1 VGND VNB VPB VPWR X
.ends

* Black-box entry subcircuit for sky130_fd_sc_hd__xor2_1 abstract view
.subckt sky130_fd_sc_hd__xor2_1 A B VGND VNB VPB VPWR X
.ends

* Black-box entry subcircuit for sky130_fd_sc_hd__nand2_1 abstract view
.subckt sky130_fd_sc_hd__nand2_1 A B VGND VNB VPB VPWR Y
.ends

* Black-box entry subcircuit for sky130_fd_sc_hd__nor2_1 abstract view
.subckt sky130_fd_sc_hd__nor2_1 A B VGND VNB VPB VPWR Y
.ends

* Black-box entry subcircuit for sky130_fd_sc_hd__a21boi_1 abstract view
.subckt sky130_fd_sc_hd__a21boi_1 A1 A2 B1_N VGND VNB VPB VPWR Y
.ends

* Black-box entry subcircuit for sky130_fd_sc_hd__tapvpwrvgnd_1 abstract view
.subckt sky130_fd_sc_hd__tapvpwrvgnd_1 VGND VPWR
.ends

* Black-box entry subcircuit for sky130_fd_sc_hd__buf_2 abstract view
.subckt sky130_fd_sc_hd__buf_2 A VGND VNB VPB VPWR X
.ends

* Black-box entry subcircuit for sky130_fd_sc_hd__a31o_1 abstract view
.subckt sky130_fd_sc_hd__a31o_1 A1 A2 A3 B1 VGND VNB VPB VPWR X
.ends

* Black-box entry subcircuit for sky130_fd_sc_hd__dlymetal6s2s_1 abstract view
.subckt sky130_fd_sc_hd__dlymetal6s2s_1 A VGND VNB VPB VPWR X
.ends

* Black-box entry subcircuit for sky130_fd_sc_hd__and3b_1 abstract view
.subckt sky130_fd_sc_hd__and3b_1 A_N B C VGND VNB VPB VPWR X
.ends

* Black-box entry subcircuit for sky130_fd_sc_hd__or2b_1 abstract view
.subckt sky130_fd_sc_hd__or2b_1 A B_N VGND VNB VPB VPWR X
.ends

* Black-box entry subcircuit for sky130_fd_sc_hd__a311o_1 abstract view
.subckt sky130_fd_sc_hd__a311o_1 A1 A2 A3 B1 C1 VGND VNB VPB VPWR X
.ends

* Black-box entry subcircuit for sky130_fd_sc_hd__nand3_1 abstract view
.subckt sky130_fd_sc_hd__nand3_1 A B C VGND VNB VPB VPWR Y
.ends

* Black-box entry subcircuit for sky130_fd_sc_hd__a2bb2o_1 abstract view
.subckt sky130_fd_sc_hd__a2bb2o_1 A1_N A2_N B1 B2 VGND VNB VPB VPWR X
.ends

* Black-box entry subcircuit for sky130_fd_sc_hd__o2111a_1 abstract view
.subckt sky130_fd_sc_hd__o2111a_1 A1 A2 B1 C1 D1 VGND VNB VPB VPWR X
.ends

* Black-box entry subcircuit for sky130_fd_sc_hd__o21ai_1 abstract view
.subckt sky130_fd_sc_hd__o21ai_1 A1 A2 B1 VGND VNB VPB VPWR Y
.ends

* Black-box entry subcircuit for sky130_fd_sc_hd__or3_1 abstract view
.subckt sky130_fd_sc_hd__or3_1 A B C VGND VNB VPB VPWR X
.ends

* Black-box entry subcircuit for sky130_fd_sc_hd__and2_1 abstract view
.subckt sky130_fd_sc_hd__and2_1 A B VGND VNB VPB VPWR X
.ends

* Black-box entry subcircuit for sky130_fd_sc_hd__or4_1 abstract view
.subckt sky130_fd_sc_hd__or4_1 A B C D VGND VNB VPB VPWR X
.ends

.subckt iiitb_freqdiv VGND VPWR clkin clkout en n[0] n[1] n[2] n[3]
X_062_ _093_/A _102_/A _094_/B _063_/A VGND VGND VPWR VPWR _064_/A sky130_fd_sc_hd__o31ai_1
X_131_ _131_/CLK _131_/D VGND VGND VPWR VPWR _131_/Q sky130_fd_sc_hd__dfxtp_1
XFILLER_2_121 VGND VGND VPWR VPWR sky130_fd_sc_hd__fill_2
XFILLER_0_57 VGND VGND VPWR VPWR sky130_ef_sc_hd__decap_12
XFILLER_9_55 VGND VGND VPWR VPWR sky130_fd_sc_hd__fill_1
XFILLER_18_97 VGND VGND VPWR VPWR sky130_fd_sc_hd__decap_4
X_114_ _126_/Q _125_/Q _127_/Q VGND VGND VPWR VPWR _115_/B sky130_fd_sc_hd__a21oi_1
XFILLER_20_54 VGND VGND VPWR VPWR sky130_fd_sc_hd__fill_2
XFILLER_20_43 VGND VGND VPWR VPWR sky130_fd_sc_hd__decap_4
XFILLER_20_21 VGND VGND VPWR VPWR sky130_fd_sc_hd__decap_6
XFILLER_13_3 VGND VGND VPWR VPWR sky130_ef_sc_hd__decap_12
Xclkbuf_1_0__f_clkin clkbuf_0_clkin/X VGND VGND VPWR VPWR _127_/CLK sky130_fd_sc_hd__clkbuf_16
XFILLER_3_57 VGND VGND VPWR VPWR sky130_ef_sc_hd__decap_12
X_130_ _130_/CLK _130_/D VGND VGND VPWR VPWR _130_/Q sky130_fd_sc_hd__dfxtp_1
XFILLER_0_69 VGND VGND VPWR VPWR sky130_ef_sc_hd__decap_12
X_113_ _127_/Q _126_/Q _125_/Q VGND VGND VPWR VPWR _118_/B sky130_fd_sc_hd__and3_1
XFILLER_15_55 VGND VGND VPWR VPWR sky130_fd_sc_hd__fill_1
XFILLER_13_113 VGND VGND VPWR VPWR sky130_fd_sc_hd__fill_2
XFILLER_3_69 VGND VGND VPWR VPWR sky130_ef_sc_hd__decap_12
XFILLER_6_109 VGND VGND VPWR VPWR sky130_ef_sc_hd__decap_12
XFILLER_3_3 VGND VGND VPWR VPWR sky130_ef_sc_hd__decap_12
XFILLER_9_57 VGND VGND VPWR VPWR sky130_fd_sc_hd__decap_4
X_112_ _112_/A VGND VGND VPWR VPWR _126_/D sky130_fd_sc_hd__clkbuf_1
XFILLER_20_89 VGND VGND VPWR VPWR sky130_fd_sc_hd__fill_1
XFILLER_15_78 VGND VGND VPWR VPWR sky130_fd_sc_hd__decap_4
XFILLER_16_111 VGND VGND VPWR VPWR sky130_fd_sc_hd__decap_4
XFILLER_16_122 VGND VGND VPWR VPWR sky130_fd_sc_hd__fill_1
XFILLER_7_90 VGND VGND VPWR VPWR sky130_fd_sc_hd__decap_6
XFILLER_3_15 VGND VGND VPWR VPWR sky130_ef_sc_hd__decap_12
XFILLER_12_57 VGND VGND VPWR VPWR sky130_fd_sc_hd__fill_1
XFILLER_5_121 VGND VGND VPWR VPWR sky130_fd_sc_hd__fill_2
XFILLER_0_27 VGND VGND VPWR VPWR sky130_fd_sc_hd__fill_1
XFILLER_18_78 VGND VGND VPWR VPWR sky130_fd_sc_hd__decap_6
XFILLER_18_67 VGND VGND VPWR VPWR sky130_fd_sc_hd__decap_4
X_111_ _111_/A _119_/A _119_/B _111_/D VGND VGND VPWR VPWR _112_/A sky130_fd_sc_hd__and4_1
XFILLER_1_81 VGND VGND VPWR VPWR sky130_ef_sc_hd__decap_12
XFILLER_20_57 VGND VGND VPWR VPWR sky130_fd_sc_hd__fill_2
XFILLER_6_15 VGND VGND VPWR VPWR sky130_ef_sc_hd__decap_12
XFILLER_15_57 VGND VGND VPWR VPWR sky130_fd_sc_hd__decap_8
XFILLER_11_3 VGND VGND VPWR VPWR sky130_ef_sc_hd__decap_12
XFILLER_3_27 VGND VGND VPWR VPWR sky130_ef_sc_hd__decap_12
XFILLER_9_119 VGND VGND VPWR VPWR sky130_fd_sc_hd__decap_4
XFILLER_5_111 VGND VGND VPWR VPWR sky130_fd_sc_hd__fill_1
XFILLER_9_15 VGND VGND VPWR VPWR sky130_ef_sc_hd__decap_12
X_110_ _126_/Q _125_/Q VGND VGND VPWR VPWR _111_/D sky130_fd_sc_hd__or2_1
XFILLER_1_93 VGND VGND VPWR VPWR sky130_ef_sc_hd__decap_12
XFILLER_19_110 VGND VGND VPWR VPWR sky130_fd_sc_hd__fill_2
XFILLER_6_27 VGND VGND VPWR VPWR sky130_fd_sc_hd__fill_1
XFILLER_10_80 VGND VGND VPWR VPWR sky130_fd_sc_hd__decap_4
XFILLER_3_39 VGND VGND VPWR VPWR sky130_ef_sc_hd__decap_12
XFILLER_8_120 VGND VGND VPWR VPWR sky130_fd_sc_hd__decap_3
XFILLER_0_29 VGND VGND VPWR VPWR sky130_ef_sc_hd__decap_12
XFILLER_9_27 VGND VGND VPWR VPWR sky130_ef_sc_hd__decap_12
XFILLER_13_91 VGND VGND VPWR VPWR sky130_fd_sc_hd__decap_4
XFILLER_18_58 VGND VGND VPWR VPWR sky130_fd_sc_hd__decap_4
XFILLER_18_47 VGND VGND VPWR VPWR sky130_fd_sc_hd__fill_1
XFILLER_1_3 VGND VGND VPWR VPWR sky130_ef_sc_hd__decap_12
XFILLER_20_37 VGND VGND VPWR VPWR sky130_fd_sc_hd__decap_3
XFILLER_19_122 VGND VGND VPWR VPWR sky130_fd_sc_hd__fill_1
XFILLER_19_90 VGND VGND VPWR VPWR sky130_fd_sc_hd__decap_4
XFILLER_20_9 VGND VGND VPWR VPWR sky130_ef_sc_hd__decap_12
XFILLER_15_15 VGND VGND VPWR VPWR sky130_ef_sc_hd__decap_12
XPHY_0 VGND VGND VPWR VPWR sky130_fd_sc_hd__decap_3
XFILLER_7_82 VGND VGND VPWR VPWR sky130_fd_sc_hd__decap_4
XFILLER_16_91 VGND VGND VPWR VPWR sky130_fd_sc_hd__decap_4
XFILLER_5_113 VGND VGND VPWR VPWR sky130_fd_sc_hd__decap_8
XFILLER_4_83 VGND VGND VPWR VPWR sky130_fd_sc_hd__fill_1
XFILLER_9_39 VGND VGND VPWR VPWR sky130_ef_sc_hd__decap_12
XFILLER_13_81 VGND VGND VPWR VPWR sky130_fd_sc_hd__decap_4
XFILLER_18_15 VGND VGND VPWR VPWR sky130_ef_sc_hd__decap_12
X_099_ _102_/A _091_/X _096_/X _098_/X VGND VGND VPWR VPWR _099_/Y sky130_fd_sc_hd__a211oi_1
XFILLER_20_27 VGND VGND VPWR VPWR sky130_fd_sc_hd__fill_1
XFILLER_1_51 VGND VGND VPWR VPWR sky130_fd_sc_hd__decap_4
XFILLER_6_29 VGND VGND VPWR VPWR sky130_ef_sc_hd__decap_12
XFILLER_15_27 VGND VGND VPWR VPWR sky130_ef_sc_hd__decap_12
X_122__2 _127_/CLK VGND VGND VPWR VPWR _130_/CLK sky130_fd_sc_hd__inv_2
XPHY_1 VGND VGND VPWR VPWR sky130_fd_sc_hd__decap_3
XFILLER_16_81 VGND VGND VPWR VPWR sky130_fd_sc_hd__decap_3
Xclkbuf_0_clkin clkin VGND VGND VPWR VPWR clkbuf_0_clkin/X sky130_fd_sc_hd__clkbuf_16
XFILLER_18_27 VGND VGND VPWR VPWR sky130_fd_sc_hd__fill_1
X_098_ _098_/A1 _097_/X _128_/Q VGND VGND VPWR VPWR _098_/X sky130_fd_sc_hd__a21o_1
XFILLER_19_113 VGND VGND VPWR VPWR sky130_fd_sc_hd__fill_2
XFILLER_10_72 VGND VGND VPWR VPWR sky130_fd_sc_hd__decap_4
XFILLER_19_70 VGND VGND VPWR VPWR sky130_fd_sc_hd__decap_4
XFILLER_15_39 VGND VGND VPWR VPWR sky130_ef_sc_hd__decap_12
XPHY_2 VGND VGND VPWR VPWR sky130_fd_sc_hd__decap_3
XFILLER_7_51 VGND VGND VPWR VPWR sky130_fd_sc_hd__decap_4
XFILLER_8_112 VGND VGND VPWR VPWR sky130_fd_sc_hd__decap_8
XFILLER_12_29 VGND VGND VPWR VPWR sky130_ef_sc_hd__decap_12
XFILLER_4_85 VGND VGND VPWR VPWR sky130_ef_sc_hd__decap_12
XFILLER_4_41 VGND VGND VPWR VPWR sky130_ef_sc_hd__decap_12
XFILLER_20_29 VGND VGND VPWR VPWR sky130_fd_sc_hd__decap_8
X_097_ _102_/A _131_/Q _127_/Q VGND VGND VPWR VPWR _097_/X sky130_fd_sc_hd__a21o_1
XFILLER_10_62 VGND VGND VPWR VPWR sky130_fd_sc_hd__decap_4
XPHY_3 VGND VGND VPWR VPWR sky130_fd_sc_hd__decap_3
XFILLER_7_96 VGND VGND VPWR VPWR sky130_fd_sc_hd__fill_1
XFILLER_5_105 VGND VGND VPWR VPWR sky130_fd_sc_hd__decap_6
XFILLER_4_97 VGND VGND VPWR VPWR sky130_ef_sc_hd__decap_12
XFILLER_4_53 VGND VGND VPWR VPWR sky130_ef_sc_hd__decap_12
XFILLER_13_51 VGND VGND VPWR VPWR sky130_fd_sc_hd__decap_4
XFILLER_18_29 VGND VGND VPWR VPWR sky130_ef_sc_hd__decap_12
X_096_ _098_/A1 _127_/Q _093_/Y _095_/X VGND VGND VPWR VPWR _096_/X sky130_fd_sc_hd__o22a_1
XFILLER_10_41 VGND VGND VPWR VPWR sky130_ef_sc_hd__decap_12
XFILLER_10_85 VGND VGND VPWR VPWR sky130_fd_sc_hd__decap_4
X_079_ _065_/Y _075_/X _076_/Y _078_/X VGND VGND VPWR VPWR _132_/D sky130_fd_sc_hd__o211a_1
XFILLER_16_118 VGND VGND VPWR VPWR sky130_fd_sc_hd__decap_4
XPHY_4 VGND VGND VPWR VPWR sky130_fd_sc_hd__decap_3
XFILLER_7_75 VGND VGND VPWR VPWR sky130_fd_sc_hd__fill_1
XFILLER_7_86 VGND VGND VPWR VPWR sky130_fd_sc_hd__fill_1
XFILLER_16_73 VGND VGND VPWR VPWR sky130_fd_sc_hd__decap_4
XFILLER_4_65 VGND VGND VPWR VPWR sky130_ef_sc_hd__decap_12
XFILLER_2_109 VGND VGND VPWR VPWR sky130_ef_sc_hd__decap_12
XFILLER_13_74 VGND VGND VPWR VPWR sky130_fd_sc_hd__decap_4
XFILLER_1_55 VGND VGND VPWR VPWR sky130_fd_sc_hd__fill_1
X_095_ _095_/A1 _126_/Q _125_/Q _072_/Y _094_/Y VGND VGND VPWR VPWR _095_/X sky130_fd_sc_hd__o221a_1
XFILLER_10_53 VGND VGND VPWR VPWR sky130_fd_sc_hd__decap_3
XFILLER_10_97 VGND VGND VPWR VPWR sky130_fd_sc_hd__decap_4
X_078_ _132_/Q _081_/A VGND VGND VPWR VPWR _078_/X sky130_fd_sc_hd__xor2_1
XFILLER_18_3 VGND VGND VPWR VPWR sky130_ef_sc_hd__decap_12
XPHY_5 VGND VGND VPWR VPWR sky130_fd_sc_hd__decap_3
XFILLER_16_41 VGND VGND VPWR VPWR sky130_ef_sc_hd__decap_12
XFILLER_16_85 VGND VGND VPWR VPWR sky130_fd_sc_hd__fill_2
XFILLER_4_77 VGND VGND VPWR VPWR sky130_fd_sc_hd__decap_6
XFILLER_1_121 VGND VGND VPWR VPWR sky130_fd_sc_hd__fill_2
X_094_ _102_/A _094_/B VGND VGND VPWR VPWR _094_/Y sky130_fd_sc_hd__nand2_1
X_077_ _131_/Q _130_/Q _129_/Q VGND VGND VPWR VPWR _081_/A sky130_fd_sc_hd__and3_1
XPHY_6 VGND VGND VPWR VPWR sky130_fd_sc_hd__decap_3
XFILLER_7_55 VGND VGND VPWR VPWR sky130_fd_sc_hd__fill_1
X_129_ _129_/CLK _129_/D VGND VGND VPWR VPWR _129_/Q sky130_fd_sc_hd__dfxtp_1
XFILLER_8_105 VGND VGND VPWR VPWR sky130_fd_sc_hd__decap_4
XFILLER_16_53 VGND VGND VPWR VPWR sky130_ef_sc_hd__decap_12
XFILLER_1_111 VGND VGND VPWR VPWR sky130_fd_sc_hd__fill_1
XFILLER_8_3 VGND VGND VPWR VPWR sky130_ef_sc_hd__decap_12
XFILLER_13_65 VGND VGND VPWR VPWR sky130_fd_sc_hd__fill_2
XFILLER_13_98 VGND VGND VPWR VPWR sky130_fd_sc_hd__decap_4
X_093_ _093_/A _093_/B VGND VGND VPWR VPWR _093_/Y sky130_fd_sc_hd__nor2_1
XFILLER_1_57 VGND VGND VPWR VPWR sky130_ef_sc_hd__decap_12
XFILLER_19_118 VGND VGND VPWR VPWR sky130_fd_sc_hd__decap_4
Xinput1 en VGND VGND VPWR VPWR input1/X sky130_fd_sc_hd__clkbuf_1
X_076_ _132_/Q _065_/B input1/X VGND VGND VPWR VPWR _076_/Y sky130_fd_sc_hd__a21boi_1
XPHY_7 VGND VGND VPWR VPWR sky130_fd_sc_hd__decap_3
XFILLER_15_110 VGND VGND VPWR VPWR sky130_fd_sc_hd__fill_2
X_128_ _128_/CLK _128_/D VGND VGND VPWR VPWR _128_/Q sky130_fd_sc_hd__dfxtp_1
XFILLER_13_55 VGND VGND VPWR VPWR sky130_fd_sc_hd__fill_1
XFILLER_1_69 VGND VGND VPWR VPWR sky130_ef_sc_hd__decap_12
XTAP_80 VGND VPWR sky130_fd_sc_hd__tapvpwrvgnd_1
Xinput2 n[0] VGND VGND VPWR VPWR _102_/A sky130_fd_sc_hd__buf_2
XFILLER_19_54 VGND VGND VPWR VPWR sky130_fd_sc_hd__fill_2
X_075_ _068_/Y _069_/Y _073_/X _074_/Y VGND VGND VPWR VPWR _075_/X sky130_fd_sc_hd__a31o_1
X_127_ _127_/CLK _127_/D VGND VGND VPWR VPWR _127_/Q sky130_fd_sc_hd__dfxtp_1
XPHY_8 VGND VGND VPWR VPWR sky130_fd_sc_hd__decap_3
XFILLER_7_57 VGND VGND VPWR VPWR sky130_ef_sc_hd__decap_12
XFILLER_15_122 VGND VGND VPWR VPWR sky130_fd_sc_hd__fill_1
XFILLER_16_3 VGND VGND VPWR VPWR sky130_ef_sc_hd__decap_12
XFILLER_4_121 VGND VGND VPWR VPWR sky130_fd_sc_hd__fill_2
XFILLER_1_113 VGND VGND VPWR VPWR sky130_fd_sc_hd__decap_4
XFILLER_1_15 VGND VGND VPWR VPWR sky130_ef_sc_hd__decap_12
X_091_ _088_/X _090_/X _132_/Q VGND VGND VPWR VPWR _091_/X sky130_fd_sc_hd__a21o_1
Xinput3 n[1] VGND VGND VPWR VPWR _094_/B sky130_fd_sc_hd__buf_2
XTAP_81 VGND VPWR sky130_fd_sc_hd__tapvpwrvgnd_1
XTAP_70 VGND VPWR sky130_fd_sc_hd__tapvpwrvgnd_1
X_074_ _100_/B _100_/C _131_/Q VGND VGND VPWR VPWR _074_/Y sky130_fd_sc_hd__a21oi_1
XPHY_9 VGND VGND VPWR VPWR sky130_fd_sc_hd__decap_3
XFILLER_7_69 VGND VGND VPWR VPWR sky130_fd_sc_hd__decap_6
X_126_ _128_/CLK _126_/D VGND VGND VPWR VPWR _126_/Q sky130_fd_sc_hd__dfxtp_1
X_109_ _109_/A VGND VGND VPWR VPWR _125_/D sky130_fd_sc_hd__clkbuf_1
XFILLER_4_15 VGND VGND VPWR VPWR sky130_ef_sc_hd__decap_12
XFILLER_13_57 VGND VGND VPWR VPWR sky130_fd_sc_hd__decap_8
XFILLER_1_27 VGND VGND VPWR VPWR sky130_ef_sc_hd__decap_12
XFILLER_6_3 VGND VGND VPWR VPWR sky130_ef_sc_hd__decap_12
X_090_ _098_/A1 _131_/Q _130_/Q _095_/A1 VGND VGND VPWR VPWR _090_/X sky130_fd_sc_hd__o22a_1
XTAP_82 VGND VPWR sky130_fd_sc_hd__tapvpwrvgnd_1
Xinput4 n[2] VGND VGND VPWR VPWR _093_/A sky130_fd_sc_hd__dlymetal6s2s_1
XTAP_60 VGND VPWR sky130_fd_sc_hd__tapvpwrvgnd_1
XTAP_71 VGND VPWR sky130_fd_sc_hd__tapvpwrvgnd_1
XFILLER_19_45 VGND VGND VPWR VPWR sky130_fd_sc_hd__decap_4
XFILLER_18_121 VGND VGND VPWR VPWR sky130_fd_sc_hd__fill_2
X_073_ _094_/B _073_/A2 _071_/X _072_/Y VGND VGND VPWR VPWR _073_/X sky130_fd_sc_hd__a31o_1
X_125_ _128_/CLK _125_/D VGND VGND VPWR VPWR _125_/Q sky130_fd_sc_hd__dfxtp_1
XFILLER_7_15 VGND VGND VPWR VPWR sky130_ef_sc_hd__decap_12
XFILLER_15_113 VGND VGND VPWR VPWR sky130_fd_sc_hd__fill_2
XFILLER_12_105 VGND VGND VPWR VPWR sky130_fd_sc_hd__decap_4
X_108_ _125_/Q _119_/A _119_/B VGND VGND VPWR VPWR _109_/A sky130_fd_sc_hd__and3b_1
XFILLER_4_27 VGND VGND VPWR VPWR sky130_fd_sc_hd__fill_1
XFILLER_5_81 VGND VGND VPWR VPWR sky130_ef_sc_hd__decap_12
Xinput5 n[3] VGND VGND VPWR VPWR _063_/A sky130_fd_sc_hd__clkbuf_1
XFILLER_1_39 VGND VGND VPWR VPWR sky130_ef_sc_hd__decap_12
XTAP_83 VGND VPWR sky130_fd_sc_hd__tapvpwrvgnd_1
XFILLER_19_57 VGND VGND VPWR VPWR sky130_fd_sc_hd__decap_6
XTAP_50 VGND VPWR sky130_fd_sc_hd__tapvpwrvgnd_1
XTAP_61 VGND VPWR sky130_fd_sc_hd__tapvpwrvgnd_1
XFILLER_10_15 VGND VGND VPWR VPWR sky130_ef_sc_hd__decap_12
XTAP_72 VGND VPWR sky130_fd_sc_hd__tapvpwrvgnd_1
X_072_ _102_/A _094_/B VGND VGND VPWR VPWR _072_/Y sky130_fd_sc_hd__nor2_1
XFILLER_7_27 VGND VGND VPWR VPWR sky130_ef_sc_hd__decap_12
XFILLER_12_117 VGND VGND VPWR VPWR sky130_fd_sc_hd__decap_6
XFILLER_7_121 VGND VGND VPWR VPWR sky130_fd_sc_hd__fill_2
X_107_ _128_/Q _065_/B input1/X VGND VGND VPWR VPWR _119_/B sky130_fd_sc_hd__a21boi_1
XFILLER_14_3 VGND VGND VPWR VPWR sky130_ef_sc_hd__decap_12
XFILLER_17_90 VGND VGND VPWR VPWR sky130_fd_sc_hd__decap_4
XFILLER_13_15 VGND VGND VPWR VPWR sky130_ef_sc_hd__decap_12
XFILLER_1_105 VGND VGND VPWR VPWR sky130_fd_sc_hd__decap_6
XFILLER_5_93 VGND VGND VPWR VPWR sky130_ef_sc_hd__decap_12
XTAP_84 VGND VPWR sky130_fd_sc_hd__tapvpwrvgnd_1
XTAP_51 VGND VPWR sky130_fd_sc_hd__tapvpwrvgnd_1
XTAP_62 VGND VPWR sky130_fd_sc_hd__tapvpwrvgnd_1
XFILLER_10_27 VGND VGND VPWR VPWR sky130_fd_sc_hd__fill_1
XTAP_73 VGND VPWR sky130_fd_sc_hd__tapvpwrvgnd_1
X_071_ _102_/A _129_/Q VGND VGND VPWR VPWR _071_/X sky130_fd_sc_hd__or2b_1
XFILLER_2_83 VGND VGND VPWR VPWR sky130_fd_sc_hd__fill_1
XFILLER_7_39 VGND VGND VPWR VPWR sky130_ef_sc_hd__decap_12
XFILLER_16_15 VGND VGND VPWR VPWR sky130_ef_sc_hd__decap_12
XFILLER_7_100 VGND VGND VPWR VPWR sky130_ef_sc_hd__decap_12
X_106_ _100_/Y _111_/A _103_/X _104_/Y _105_/Y VGND VGND VPWR VPWR _119_/A sky130_fd_sc_hd__a311o_1
XFILLER_8_82 VGND VGND VPWR VPWR sky130_fd_sc_hd__fill_2
XFILLER_8_93 VGND VGND VPWR VPWR sky130_fd_sc_hd__decap_6
XFILLER_4_29 VGND VGND VPWR VPWR sky130_ef_sc_hd__decap_12
XFILLER_1_117 VGND VGND VPWR VPWR sky130_fd_sc_hd__fill_1
XFILLER_13_27 VGND VGND VPWR VPWR sky130_ef_sc_hd__decap_12
XTAP_85 VGND VPWR sky130_fd_sc_hd__tapvpwrvgnd_1
XTAP_52 VGND VPWR sky130_fd_sc_hd__tapvpwrvgnd_1
XTAP_63 VGND VPWR sky130_fd_sc_hd__tapvpwrvgnd_1
XTAP_74 VGND VPWR sky130_fd_sc_hd__tapvpwrvgnd_1
XFILLER_19_15 VGND VGND VPWR VPWR sky130_ef_sc_hd__decap_12
XFILLER_4_3 VGND VGND VPWR VPWR sky130_ef_sc_hd__decap_12
XFILLER_11_82 VGND VGND VPWR VPWR sky130_fd_sc_hd__decap_4
XFILLER_16_27 VGND VGND VPWR VPWR sky130_fd_sc_hd__fill_1
X_105_ _100_/B _100_/C _127_/Q VGND VGND VPWR VPWR _105_/Y sky130_fd_sc_hd__a21oi_1
XFILLER_17_70 VGND VGND VPWR VPWR sky130_fd_sc_hd__decap_4
XFILLER_13_39 VGND VGND VPWR VPWR sky130_ef_sc_hd__decap_12
XFILLER_5_51 VGND VGND VPWR VPWR sky130_fd_sc_hd__decap_4
XFILLER_14_71 VGND VGND VPWR VPWR sky130_fd_sc_hd__decap_4
XTAP_86 VGND VPWR sky130_fd_sc_hd__tapvpwrvgnd_1
XTAP_53 VGND VPWR sky130_fd_sc_hd__tapvpwrvgnd_1
XTAP_42 VGND VPWR sky130_fd_sc_hd__tapvpwrvgnd_1
XTAP_64 VGND VPWR sky130_fd_sc_hd__tapvpwrvgnd_1
XFILLER_14_82 VGND VGND VPWR VPWR sky130_fd_sc_hd__fill_2
XTAP_75 VGND VPWR sky130_fd_sc_hd__tapvpwrvgnd_1
XFILLER_19_27 VGND VGND VPWR VPWR sky130_ef_sc_hd__decap_12
XFILLER_10_29 VGND VGND VPWR VPWR sky130_ef_sc_hd__decap_12
XFILLER_2_85 VGND VGND VPWR VPWR sky130_ef_sc_hd__decap_12
XFILLER_2_41 VGND VGND VPWR VPWR sky130_ef_sc_hd__decap_12
XFILLER_20_120 VGND VGND VPWR VPWR sky130_fd_sc_hd__decap_3
X_123__3 _128_/CLK VGND VGND VPWR VPWR _131_/CLK sky130_fd_sc_hd__inv_2
XFILLER_7_113 VGND VGND VPWR VPWR sky130_fd_sc_hd__decap_8
X_104_ _064_/A _064_/B _128_/Q VGND VGND VPWR VPWR _104_/Y sky130_fd_sc_hd__a21oi_1
XFILLER_8_73 VGND VGND VPWR VPWR sky130_fd_sc_hd__decap_3
XFILLER_12_3 VGND VGND VPWR VPWR sky130_fd_sc_hd__fill_2
XTAP_87 VGND VPWR sky130_fd_sc_hd__tapvpwrvgnd_1
XTAP_43 VGND VPWR sky130_fd_sc_hd__tapvpwrvgnd_1
XTAP_54 VGND VPWR sky130_fd_sc_hd__tapvpwrvgnd_1
XTAP_65 VGND VPWR sky130_fd_sc_hd__tapvpwrvgnd_1
XFILLER_14_94 VGND VGND VPWR VPWR sky130_fd_sc_hd__decap_4
XTAP_76 VGND VPWR sky130_fd_sc_hd__tapvpwrvgnd_1
XFILLER_19_39 VGND VGND VPWR VPWR sky130_fd_sc_hd__decap_3
XFILLER_2_97 VGND VGND VPWR VPWR sky130_ef_sc_hd__decap_12
XFILLER_2_53 VGND VGND VPWR VPWR sky130_ef_sc_hd__decap_12
X_120_ _120_/A VGND VGND VPWR VPWR _128_/D sky130_fd_sc_hd__clkbuf_1
XFILLER_11_51 VGND VGND VPWR VPWR sky130_fd_sc_hd__decap_4
XFILLER_15_118 VGND VGND VPWR VPWR sky130_fd_sc_hd__decap_4
XFILLER_20_110 VGND VGND VPWR VPWR sky130_fd_sc_hd__fill_2
XFILLER_16_29 VGND VGND VPWR VPWR sky130_ef_sc_hd__decap_12
XFILLER_11_110 VGND VGND VPWR VPWR sky130_fd_sc_hd__fill_2
XFILLER_11_121 VGND VGND VPWR VPWR sky130_fd_sc_hd__fill_2
X_103_ _094_/B _093_/B _102_/X _072_/Y VGND VGND VPWR VPWR _103_/X sky130_fd_sc_hd__a31o_1
XFILLER_8_41 VGND VGND VPWR VPWR sky130_ef_sc_hd__decap_12
XFILLER_8_85 VGND VGND VPWR VPWR sky130_fd_sc_hd__fill_2
XTAP_44 VGND VPWR sky130_fd_sc_hd__tapvpwrvgnd_1
XTAP_55 VGND VPWR sky130_fd_sc_hd__tapvpwrvgnd_1
XTAP_66 VGND VPWR sky130_fd_sc_hd__tapvpwrvgnd_1
XTAP_77 VGND VPWR sky130_fd_sc_hd__tapvpwrvgnd_1
XFILLER_2_65 VGND VGND VPWR VPWR sky130_ef_sc_hd__decap_12
XFILLER_2_3 VGND VGND VPWR VPWR sky130_ef_sc_hd__decap_12
XFILLER_11_63 VGND VGND VPWR VPWR sky130_fd_sc_hd__fill_1
X_102_ _102_/A _125_/Q VGND VGND VPWR VPWR _102_/X sky130_fd_sc_hd__or2b_1
XFILLER_8_53 VGND VGND VPWR VPWR sky130_ef_sc_hd__decap_12
XFILLER_0_121 VGND VGND VPWR VPWR sky130_fd_sc_hd__fill_2
XFILLER_14_41 VGND VGND VPWR VPWR sky130_ef_sc_hd__decap_12
XFILLER_14_63 VGND VGND VPWR VPWR sky130_fd_sc_hd__decap_4
XFILLER_14_85 VGND VGND VPWR VPWR sky130_fd_sc_hd__fill_2
XTAP_45 VGND VPWR sky130_fd_sc_hd__tapvpwrvgnd_1
XTAP_56 VGND VPWR sky130_fd_sc_hd__tapvpwrvgnd_1
XTAP_67 VGND VPWR sky130_fd_sc_hd__tapvpwrvgnd_1
XTAP_78 VGND VPWR sky130_fd_sc_hd__tapvpwrvgnd_1
XPHY_40 VGND VGND VPWR VPWR sky130_fd_sc_hd__decap_3
XFILLER_2_77 VGND VGND VPWR VPWR sky130_fd_sc_hd__decap_6
X_101_ _126_/Q _125_/Q VGND VGND VPWR VPWR _111_/A sky130_fd_sc_hd__nand2_1
XFILLER_8_65 VGND VGND VPWR VPWR sky130_fd_sc_hd__decap_8
XFILLER_0_111 VGND VGND VPWR VPWR sky130_fd_sc_hd__fill_1
XFILLER_5_55 VGND VGND VPWR VPWR sky130_fd_sc_hd__fill_1
XFILLER_10_3 VGND VGND VPWR VPWR sky130_ef_sc_hd__decap_12
XFILLER_14_53 VGND VGND VPWR VPWR sky130_fd_sc_hd__decap_6
XTAP_46 VGND VPWR sky130_fd_sc_hd__tapvpwrvgnd_1
XTAP_57 VGND VPWR sky130_fd_sc_hd__tapvpwrvgnd_1
XTAP_68 VGND VPWR sky130_fd_sc_hd__tapvpwrvgnd_1
XTAP_79 VGND VPWR sky130_fd_sc_hd__tapvpwrvgnd_1
XPHY_41 VGND VGND VPWR VPWR sky130_fd_sc_hd__decap_3
XPHY_30 VGND VGND VPWR VPWR sky130_fd_sc_hd__decap_3
XFILLER_14_121 VGND VGND VPWR VPWR sky130_fd_sc_hd__fill_2
XFILLER_20_113 VGND VGND VPWR VPWR sky130_fd_sc_hd__fill_2
XFILLER_11_113 VGND VGND VPWR VPWR sky130_fd_sc_hd__fill_2
X_100_ _127_/Q _100_/B _100_/C VGND VGND VPWR VPWR _100_/Y sky130_fd_sc_hd__nand3_1
XFILLER_4_109 VGND VGND VPWR VPWR sky130_ef_sc_hd__decap_12
XTAP_47 VGND VPWR sky130_fd_sc_hd__tapvpwrvgnd_1
XTAP_58 VGND VPWR sky130_fd_sc_hd__tapvpwrvgnd_1
XTAP_69 VGND VPWR sky130_fd_sc_hd__tapvpwrvgnd_1
XPHY_20 VGND VGND VPWR VPWR sky130_fd_sc_hd__decap_3
XPHY_31 VGND VGND VPWR VPWR sky130_fd_sc_hd__decap_3
XFILLER_11_55 VGND VGND VPWR VPWR sky130_fd_sc_hd__fill_1
XFILLER_11_103 VGND VGND VPWR VPWR sky130_fd_sc_hd__decap_4
XFILLER_0_3 VGND VGND VPWR VPWR sky130_fd_sc_hd__fill_2
XFILLER_3_121 VGND VGND VPWR VPWR sky130_fd_sc_hd__fill_2
XFILLER_17_54 VGND VGND VPWR VPWR sky130_fd_sc_hd__fill_2
XFILLER_12_8 VGND VGND VPWR VPWR sky130_ef_sc_hd__decap_12
XFILLER_0_113 VGND VGND VPWR VPWR sky130_fd_sc_hd__decap_8
XFILLER_5_57 VGND VGND VPWR VPWR sky130_ef_sc_hd__decap_12
XTAP_48 VGND VPWR sky130_fd_sc_hd__tapvpwrvgnd_1
XTAP_59 VGND VPWR sky130_fd_sc_hd__tapvpwrvgnd_1
XPHY_10 VGND VGND VPWR VPWR sky130_fd_sc_hd__decap_3
XPHY_21 VGND VGND VPWR VPWR sky130_fd_sc_hd__decap_3
XPHY_32 VGND VGND VPWR VPWR sky130_fd_sc_hd__decap_3
XFILLER_11_89 VGND VGND VPWR VPWR sky130_fd_sc_hd__decap_6
XFILLER_14_101 VGND VGND VPWR VPWR sky130_fd_sc_hd__decap_4
Xclkbuf_1_1__f_clkin clkbuf_0_clkin/X VGND VGND VPWR VPWR _128_/CLK sky130_fd_sc_hd__clkbuf_16
XFILLER_3_111 VGND VGND VPWR VPWR sky130_fd_sc_hd__fill_1
XFILLER_0_91 VGND VGND VPWR VPWR sky130_ef_sc_hd__decap_12
XFILLER_0_103 VGND VGND VPWR VPWR sky130_fd_sc_hd__decap_8
XFILLER_5_69 VGND VGND VPWR VPWR sky130_ef_sc_hd__decap_12
XTAP_49 VGND VPWR sky130_fd_sc_hd__tapvpwrvgnd_1
XPHY_11 VGND VGND VPWR VPWR sky130_fd_sc_hd__decap_3
XPHY_22 VGND VGND VPWR VPWR sky130_fd_sc_hd__decap_3
XPHY_33 VGND VGND VPWR VPWR sky130_fd_sc_hd__decap_3
XFILLER_2_15 VGND VGND VPWR VPWR sky130_ef_sc_hd__decap_12
XFILLER_17_110 VGND VGND VPWR VPWR sky130_fd_sc_hd__fill_2
XFILLER_11_57 VGND VGND VPWR VPWR sky130_fd_sc_hd__decap_6
XFILLER_19_3 VGND VGND VPWR VPWR sky130_ef_sc_hd__decap_12
X_088_ _086_/C1 _094_/B _095_/A1 _130_/Q VGND VGND VPWR VPWR _088_/X sky130_fd_sc_hd__a2bb2o_1
XFILLER_0_81 VGND VGND VPWR VPWR sky130_fd_sc_hd__decap_3
XFILLER_5_15 VGND VGND VPWR VPWR sky130_ef_sc_hd__decap_12
XPHY_12 VGND VGND VPWR VPWR sky130_fd_sc_hd__decap_3
XFILLER_2_27 VGND VGND VPWR VPWR sky130_fd_sc_hd__fill_1
XPHY_23 VGND VGND VPWR VPWR sky130_fd_sc_hd__decap_3
XPHY_34 VGND VGND VPWR VPWR sky130_fd_sc_hd__decap_3
XFILLER_17_122 VGND VGND VPWR VPWR sky130_fd_sc_hd__fill_1
XFILLER_11_69 VGND VGND VPWR VPWR sky130_fd_sc_hd__decap_4
XFILLER_3_81 VGND VGND VPWR VPWR sky130_ef_sc_hd__decap_12
XFILLER_6_121 VGND VGND VPWR VPWR sky130_fd_sc_hd__fill_2
XFILLER_8_15 VGND VGND VPWR VPWR sky130_ef_sc_hd__decap_12
XFILLER_3_113 VGND VGND VPWR VPWR sky130_fd_sc_hd__decap_8
XFILLER_17_57 VGND VGND VPWR VPWR sky130_fd_sc_hd__decap_8
XFILLER_5_27 VGND VGND VPWR VPWR sky130_ef_sc_hd__decap_12
XPHY_13 VGND VGND VPWR VPWR sky130_fd_sc_hd__decap_3
XFILLER_9_3 VGND VGND VPWR VPWR sky130_ef_sc_hd__decap_12
XPHY_24 VGND VGND VPWR VPWR sky130_fd_sc_hd__decap_3
XPHY_35 VGND VGND VPWR VPWR sky130_fd_sc_hd__decap_3
XFILLER_11_15 VGND VGND VPWR VPWR sky130_ef_sc_hd__decap_12
XFILLER_3_93 VGND VGND VPWR VPWR sky130_ef_sc_hd__decap_12
XFILLER_8_27 VGND VGND VPWR VPWR sky130_fd_sc_hd__fill_1
X_086_ _065_/Y _075_/X _076_/Y _086_/C1 VGND VGND VPWR VPWR _129_/D sky130_fd_sc_hd__o211a_1
X_069_ _130_/Q _129_/Q VGND VGND VPWR VPWR _069_/Y sky130_fd_sc_hd__nand2_1
XFILLER_5_39 VGND VGND VPWR VPWR sky130_ef_sc_hd__decap_12
XFILLER_14_15 VGND VGND VPWR VPWR sky130_ef_sc_hd__decap_12
X_121__1 _127_/CLK VGND VGND VPWR VPWR _129_/CLK sky130_fd_sc_hd__inv_2
XPHY_14 VGND VGND VPWR VPWR sky130_fd_sc_hd__decap_3
XPHY_25 VGND VGND VPWR VPWR sky130_fd_sc_hd__decap_3
XPHY_36 VGND VGND VPWR VPWR sky130_fd_sc_hd__decap_3
XFILLER_2_29 VGND VGND VPWR VPWR sky130_ef_sc_hd__decap_12
XFILLER_17_113 VGND VGND VPWR VPWR sky130_fd_sc_hd__fill_2
XFILLER_11_27 VGND VGND VPWR VPWR sky130_ef_sc_hd__decap_12
XFILLER_12_81 VGND VGND VPWR VPWR sky130_fd_sc_hd__decap_3
XFILLER_12_92 VGND VGND VPWR VPWR sky130_fd_sc_hd__decap_4
XFILLER_17_15 VGND VGND VPWR VPWR sky130_ef_sc_hd__decap_12
X_068_ _131_/Q _100_/B _100_/C VGND VGND VPWR VPWR _068_/Y sky130_fd_sc_hd__nand3_1
XFILLER_9_71 VGND VGND VPWR VPWR sky130_fd_sc_hd__decap_4
XFILLER_9_82 VGND VGND VPWR VPWR sky130_fd_sc_hd__decap_6
XFILLER_17_3 VGND VGND VPWR VPWR sky130_ef_sc_hd__decap_12
XFILLER_14_27 VGND VGND VPWR VPWR sky130_fd_sc_hd__fill_1
XPHY_37 VGND VGND VPWR VPWR sky130_fd_sc_hd__decap_3
XFILLER_6_83 VGND VGND VPWR VPWR sky130_fd_sc_hd__fill_1
XPHY_15 VGND VGND VPWR VPWR sky130_fd_sc_hd__decap_3
XPHY_26 VGND VGND VPWR VPWR sky130_fd_sc_hd__decap_3
XFILLER_15_70 VGND VGND VPWR VPWR sky130_fd_sc_hd__decap_4
XFILLER_11_39 VGND VGND VPWR VPWR sky130_ef_sc_hd__decap_12
XFILLER_3_51 VGND VGND VPWR VPWR sky130_fd_sc_hd__decap_4
XFILLER_9_110 VGND VGND VPWR VPWR sky130_fd_sc_hd__fill_2
XFILLER_0_9 VGND VGND VPWR VPWR sky130_ef_sc_hd__decap_12
XFILLER_8_29 VGND VGND VPWR VPWR sky130_ef_sc_hd__decap_12
X_084_ _065_/Y _075_/X _076_/Y _083_/X _069_/Y VGND VGND VPWR VPWR _130_/D sky130_fd_sc_hd__o2111a_1
XFILLER_17_27 VGND VGND VPWR VPWR sky130_ef_sc_hd__decap_12
XFILLER_3_105 VGND VGND VPWR VPWR sky130_fd_sc_hd__decap_6
XFILLER_0_85 VGND VGND VPWR VPWR sky130_fd_sc_hd__fill_2
XFILLER_0_41 VGND VGND VPWR VPWR sky130_ef_sc_hd__decap_12
X_067_ _102_/A _094_/B _093_/A VGND VGND VPWR VPWR _100_/C sky130_fd_sc_hd__o21ai_1
X_119_ _119_/A _119_/B _119_/C VGND VGND VPWR VPWR _120_/A sky130_fd_sc_hd__and3_1
XFILLER_20_82 VGND VGND VPWR VPWR sky130_fd_sc_hd__fill_2
XPHY_38 VGND VGND VPWR VPWR sky130_fd_sc_hd__decap_3
XPHY_16 VGND VGND VPWR VPWR sky130_fd_sc_hd__decap_3
XPHY_27 VGND VGND VPWR VPWR sky130_fd_sc_hd__decap_3
XFILLER_7_3 VGND VGND VPWR VPWR sky130_ef_sc_hd__decap_12
XFILLER_10_121 VGND VGND VPWR VPWR sky130_fd_sc_hd__fill_2
X_083_ _130_/Q _129_/Q VGND VGND VPWR VPWR _083_/X sky130_fd_sc_hd__or2_1
XFILLER_17_39 VGND VGND VPWR VPWR sky130_ef_sc_hd__decap_12
XFILLER_0_53 VGND VGND VPWR VPWR sky130_fd_sc_hd__decap_3
XFILLER_9_51 VGND VGND VPWR VPWR sky130_fd_sc_hd__decap_4